Version 4
SHEET 1 1428 680
WIRE -304 -640 -304 -688
WIRE -128 -640 -128 -688
WIRE -304 -528 -304 -560
WIRE -128 -528 -128 -560
WIRE 192 -416 144 -416
WIRE 288 -416 256 -416
WIRE 496 -416 464 -416
WIRE 608 -416 576 -416
WIRE 784 -400 736 -400
WIRE 912 -400 864 -400
WIRE 1232 -384 1184 -384
WIRE 1360 -384 1312 -384
WIRE 16 -304 -48 -304
WIRE 144 -304 144 -416
WIRE 144 -304 96 -304
WIRE 192 -304 144 -304
WIRE 288 -288 288 -416
WIRE 288 -288 256 -288
WIRE 304 -288 288 -288
WIRE 432 -288 384 -288
WIRE 464 -288 464 -416
WIRE 464 -288 432 -288
WIRE 496 -288 464 -288
WIRE 192 -272 144 -272
WIRE 608 -272 608 -416
WIRE 608 -272 560 -272
WIRE 640 -272 608 -272
WIRE 736 -272 736 -400
WIRE 736 -272 704 -272
WIRE 784 -272 736 -272
WIRE -432 -256 -432 -272
WIRE 496 -256 464 -256
WIRE 912 -256 912 -400
WIRE 912 -256 848 -256
WIRE 992 -256 912 -256
WIRE 1120 -256 1072 -256
WIRE 1184 -256 1184 -384
WIRE 1184 -256 1120 -256
WIRE 1232 -256 1184 -256
WIRE 144 -240 144 -272
WIRE 784 -240 736 -240
WIRE 1360 -240 1360 -384
WIRE 1360 -240 1296 -240
WIRE 1424 -240 1360 -240
WIRE 464 -224 464 -256
WIRE 736 -208 736 -240
WIRE 992 -160 912 -160
WIRE 1120 -160 1120 -256
WIRE 1120 -160 1072 -160
WIRE -432 -144 -432 -176
WIRE -432 -144 -480 -144
WIRE -432 -112 -432 -144
WIRE 192 -112 144 -112
WIRE 288 -112 256 -112
WIRE 992 -64 912 -64
WIRE 1120 -64 1120 -160
WIRE 1120 -64 1072 -64
WIRE -432 -16 -432 -32
WIRE 16 0 -48 0
WIRE 144 0 144 -112
WIRE 144 0 96 0
WIRE 192 0 144 0
WIRE 288 16 288 -112
WIRE 288 16 256 16
WIRE 304 16 288 16
WIRE 432 16 432 -288
WIRE 432 16 384 16
WIRE 192 32 144 32
WIRE 144 64 144 32
FLAG 144 -240 0
FLAG 144 64 0
FLAG 464 -224 0
FLAG 736 -208 0
FLAG -480 -144 0
FLAG -432 -272 V+
FLAG 224 -320 V+
FLAG 224 -16 V+
FLAG 528 -304 V+
FLAG 816 -288 V+
FLAG 1264 -272 V+
FLAG -432 -16 V-
FLAG 224 -256 V-
FLAG 224 48 V-
FLAG 528 -240 V-
FLAG 816 -224 V-
FLAG 1264 -208 V-
FLAG -304 -528 0
FLAG -128 -528 0
FLAG -304 -688 V1
FLAG -128 -688 V2
FLAG -48 -304 V1
FLAG 912 -160 V1
FLAG -48 0 V2
FLAG 912 -64 V2
SYMBOL LM324_NS 224 -352 R0
SYMATTR InstName U1
SYMBOL LM324_NS 224 -48 R0
SYMATTR InstName U2
SYMBOL LM324_NS 528 -336 R0
SYMATTR InstName U3
SYMBOL LM324_NS 816 -320 R0
SYMATTR InstName U4
SYMBOL diode 192 -400 R270
WINDOW 0 32 32 VTop 2
WINDOW 3 0 32 VBottom 2
SYMATTR InstName D1
SYMATTR Value 1N914
SYMBOL diode 192 -96 R270
WINDOW 0 32 32 VTop 2
WINDOW 3 0 32 VBottom 2
SYMATTR InstName D2
SYMATTR Value 1N914
SYMBOL diode 640 -256 R270
WINDOW 0 32 32 VTop 2
WINDOW 3 0 32 VBottom 2
SYMATTR InstName D3
SYMATTR Value 1N914
SYMBOL res 112 -320 R90
WINDOW 0 0 56 VBottom 2
WINDOW 3 32 56 VTop 2
SYMATTR InstName R1
SYMATTR Value 50
SYMBOL res 112 -16 R90
WINDOW 0 0 56 VBottom 2
WINDOW 3 32 56 VTop 2
SYMATTR InstName R2
SYMATTR Value 50
SYMBOL res 400 -304 R90
WINDOW 0 0 56 VBottom 2
WINDOW 3 32 56 VTop 2
SYMATTR InstName R3
SYMATTR Value 50
SYMBOL res 400 0 R90
WINDOW 0 0 56 VBottom 2
WINDOW 3 32 56 VTop 2
SYMATTR InstName R4
SYMATTR Value 50
SYMBOL res 592 -432 R90
WINDOW 0 0 56 VBottom 2
WINDOW 3 32 56 VTop 2
SYMATTR InstName R5
SYMATTR Value 50
SYMBOL res 880 -416 R90
WINDOW 0 0 56 VBottom 2
WINDOW 3 32 56 VTop 2
SYMATTR InstName R6
SYMATTR Value 50
SYMBOL res 1088 -272 R90
WINDOW 0 0 56 VBottom 2
WINDOW 3 32 56 VTop 2
SYMATTR InstName R7
SYMATTR Value 50
SYMBOL res 1088 -176 R90
WINDOW 0 0 56 VBottom 2
WINDOW 3 32 56 VTop 2
SYMATTR InstName R8
SYMATTR Value 50
SYMBOL res 1088 -80 R90
WINDOW 0 0 56 VBottom 2
WINDOW 3 32 56 VTop 2
SYMATTR InstName R9
SYMATTR Value 50
SYMBOL LM324_NS 1264 -304 R0
SYMATTR InstName U5
SYMBOL res 1328 -400 R90
WINDOW 0 0 56 VBottom 2
WINDOW 3 32 56 VTop 2
SYMATTR InstName R10
SYMATTR Value 50
SYMBOL voltage -432 -272 R0
WINDOW 123 0 0 Left 0
WINDOW 39 0 0 Left 0
SYMATTR InstName V1
SYMATTR Value 5
SYMBOL voltage -432 -128 R0
WINDOW 123 0 0 Left 0
WINDOW 39 0 0 Left 0
SYMATTR InstName V2
SYMATTR Value -5
SYMBOL voltage -304 -656 R0
WINDOW 123 0 0 Left 0
WINDOW 39 0 0 Left 0
SYMATTR InstName V3
SYMATTR Value SINE(5 4 45)
SYMBOL voltage -128 -656 R0
WINDOW 123 0 0 Left 0
WINDOW 39 0 0 Left 0
SYMATTR InstName V4
SYMATTR Value SINE(5 5 60)
TEXT -144 328 Left 2 !.lib LM324.MOD
TEXT -144 272 Left 2 ;SOLVE: distortions on the output\nPOSSIBLE SOLUTION: check if resistor values are correct
TEXT -504 344 Left 2 !.tran 0.5
